Version 4
SHEET 1 1804 680
WIRE 1104 -192 1104 -240
WIRE 992 -160 912 -160
WIRE 1264 -160 1232 -160
WIRE 1360 -160 1264 -160
WIRE 1648 -160 1584 -160
WIRE 784 -144 752 -144
WIRE 1264 -144 1264 -160
WIRE 0 -128 -96 -128
WIRE 96 -128 0 -128
WIRE 192 -128 96 -128
WIRE 400 -128 368 -128
WIRE 592 -128 480 -128
WIRE 912 -112 912 -160
WIRE 912 -112 752 -112
WIRE 592 -96 528 -96
WIRE -96 -80 -96 -128
WIRE 0 -80 0 -128
WIRE 96 -80 96 -128
WIRE 912 -80 752 -80
WIRE 1360 -64 1344 -64
WIRE 1600 -64 1584 -64
WIRE 1648 -64 1600 -64
WIRE 784 -48 752 -48
WIRE 912 -48 912 -80
WIRE 992 -48 912 -48
WIRE 1264 -48 1264 -80
WIRE 1264 -48 1232 -48
WIRE 1344 -48 1344 -64
WIRE 1344 -48 1264 -48
WIRE -96 32 -96 0
WIRE 0 32 0 -16
WIRE 96 32 96 -16
WIRE 528 32 528 -96
WIRE 1104 32 1104 -16
WIRE 368 128 368 -128
WIRE 816 128 368 128
WIRE 192 192 192 144
WIRE 592 192 560 192
WIRE 592 224 496 224
WIRE 752 224 720 224
WIRE 816 224 816 128
WIRE 816 224 752 224
WIRE 560 256 544 256
WIRE 592 256 560 256
WIRE 1600 304 1600 -64
WIRE 1600 304 1168 304
WIRE 192 336 192 272
WIRE 544 336 544 256
WIRE 1008 336 544 336
WIRE 1216 336 1168 336
FLAG -96 32 0
FLAG 0 32 0
FLAG 96 32 0
FLAG 192 -128 Vcc
FLAG 528 32 0
FLAG 784 -144 0
FLAG 784 -48 Vcc
FLAG 192 336 0
FLAG 1216 336 Vcc
FLAG 1648 -64 enc
FLAG 1648 -160 Omega
IOPIN 1648 -160 Out
FLAG 1104 -240 Vcc
FLAG 1104 32 0
FLAG 752 224 Vo
FLAG 560 192 Vcc
FLAG 560 256 Vs
FLAG 496 224 Vref
FLAG 192 144 Vref
SYMBOL voltage -96 -96 R0
SYMATTR InstName V1
SYMATTR Value 8
SYMBOL polcap -16 -80 R0
SYMATTR InstName C1
SYMATTR Value 100µ
SYMBOL cap 80 -80 R0
SYMATTR InstName C2
SYMATTR Value 0.1µ
SYMBOL Motor_Direction 672 -96 R0
SYMATTR InstName X1
SYMBOL DC_Motor_Driver 1072 -128 R0
SYMATTR InstName X2
SYMBOL I-Compensator 656 224 R0
WINDOW 39 180 42 Bottom 2
SYMATTR SpiceLine CI = 20u RI = 47k
SYMATTR InstName X3
SYMBOL res 496 -144 R90
WINDOW 0 0 56 VBottom 2
WINDOW 3 32 56 VTop 2
SYMATTR InstName R1
SYMATTR Value 330
SYMBOL voltage 192 176 R0
WINDOW 3 -107 99 Left 2
WINDOW 123 0 0 Left 0
WINDOW 39 0 0 Left 0
SYMATTR Value PULSE(0 5 .5 1ms 1ms 4)
SYMATTR InstName V2
SYMBOL Speed_Sensor 1088 320 M0
SYMATTR InstName X4
SYMBOL DC_motor_model4 1456 -112 R0
SYMATTR InstName X5
SYMBOL cap 1248 -144 R0
SYMATTR InstName C3
SYMATTR Value 0.1µ
TEXT -136 152 Left 2 !.tran 4 uic
TEXT -136 104 Left 2 !.save V(vs) V(Vref) V(vo)
