Version 4
SHEET 1 1772 680
WIRE 144 -32 48 -32
WIRE 736 -32 144 -32
WIRE 736 32 736 -32
WIRE 624 64 544 64
WIRE 960 64 864 64
WIRE 1008 64 960 64
WIRE 1104 64 1008 64
WIRE 1360 64 1328 64
WIRE 1392 64 1360 64
WIRE 1008 80 1008 64
WIRE 48 128 48 -32
WIRE 144 128 144 -32
WIRE 1008 160 1008 144
WIRE 1008 160 880 160
WIRE 1104 160 1008 160
WIRE 480 176 336 176
WIRE 624 176 560 176
WIRE 880 176 880 160
WIRE 880 176 864 176
WIRE 1360 192 1360 64
WIRE 336 240 336 176
WIRE 48 256 48 208
WIRE 144 256 144 192
WIRE 736 256 736 208
WIRE 1008 320 1008 160
WIRE 1104 320 1008 320
WIRE 1360 320 1328 320
WIRE 1392 320 1360 320
WIRE 1008 336 1008 320
WIRE 336 368 336 320
WIRE 960 416 960 64
WIRE 1008 416 1008 400
WIRE 1008 416 960 416
WIRE 1104 416 1008 416
WIRE 1360 448 1360 320
FLAG 336 368 0
FLAG 144 256 0
FLAG 48 256 0
FLAG 736 256 0
FLAG 1392 64 omega1
IOPIN 1392 64 Out
FLAG 1392 320 omega2
IOPIN 1392 320 Out
FLAG 544 64 0
SYMBOL voltage 48 112 R0
SYMATTR InstName V1
SYMATTR Value 8
SYMBOL voltage 336 224 R0
SYMATTR InstName V2
SYMATTR Value 8
SYMBOL polcap 128 128 R0
SYMATTR InstName C1
SYMATTR Value 100µ
SYMBOL res 576 160 R90
WINDOW 0 0 56 VBottom 2
WINDOW 3 32 56 VTop 2
SYMATTR InstName R1
SYMATTR Value {RB1}
SYMBOL DC_Motor_Driver 704 96 R0
SYMATTR InstName X1
SYMBOL cap 992 80 R0
SYMATTR InstName C2
SYMATTR Value 100n
SYMBOL cap 992 336 R0
SYMATTR InstName C3
SYMATTR Value 100n
SYMBOL DC_motor_model4 1200 112 R0
SYMATTR InstName X2
SYMBOL DC_motor_model4 1200 368 R0
SYMATTR InstName X3
TEXT 16 416 Left 2 !.parameter RB1 330
TEXT 16 448 Left 2 !.tran 2.5
